* NGSPICE file created from tt_um_sonos_flash_party.ext - technology: sky130A

.subckt tt_um_sonos_flash_party clk ena rst_n ua[0] ua[1] ua[2] ua[3] ua[4] ua[5]
+ ua[6] ua[7] ui_in[0] ui_in[1] ui_in[2] ui_in[3] ui_in[4] ui_in[5] ui_in[6] ui_in[7]
+ uio_in[0] uio_in[1] uio_in[2] uio_in[3] uio_in[4] uio_in[5] uio_in[6] uio_in[7]
+ uio_oe[0] uio_oe[1] uio_oe[2] uio_oe[3] uio_oe[4] uio_oe[5] uio_oe[6] uio_oe[7]
+ uio_out[0] uio_out[1] uio_out[2] uio_out[3] uio_out[4] uio_out[5] uio_out[6] uio_out[7]
+ uo_out[0] uo_out[1] uo_out[2] uo_out[3] uo_out[4] uo_out[5] uo_out[6] uo_out[7]
+ VDPWR VGND VAPWR
X0 flash_0.x7.VPRGNEG VGND.t42 sky130_fd_pr__cap_mim_m3_1 l=25 w=30
X1 flash_0.x7.VPRGPOS.t28 flash_0.x7.pos_mid_b.t3 flash_0.x7.vintp flash_0.x7.VPRGPOS.t14 sky130_fd_pr__pfet_g5v0d10v5 ad=0.0725 pd=0.79 as=0.0725 ps=0.79 w=0.5 l=0.5
X2 flash_0.x2.clkb.t1 flash_0.x2.clkinb VAPWR.t15 VAPWR.t2 sky130_fd_pr__pfet_g5v0d10v5 ad=0.435 pd=3.58 as=0.435 ps=3.58 w=1.5 l=1
X3 flash_0.x7.VPRGPOS.t30 flash_0.x7.pos_mid flash_0.x7.pos_mid_b.t2 flash_0.x7.VPRGPOS.t22 sky130_fd_pr__pfet_g5v0d10v5 ad=0.135 pd=1.54 as=0.135 ps=1.54 w=0.5 l=3
X4 flash_0.x3.clkinb clk.t0 VAPWR.t12 VAPWR.t11 sky130_fd_pr__pfet_g5v0d10v5 ad=0.145 pd=1.58 as=0.145 ps=1.58 w=0.5 l=1
X5 flash_0.x7.VPRGPOS.t29 flash_0.x4.pos_mid flash_0.x4.pos_mid_b.t2 flash_0.x7.VPRGPOS.t4 sky130_fd_pr__pfet_g5v0d10v5 ad=0.135 pd=1.54 as=0.135 ps=1.54 w=0.5 l=3
X6 VGND.t66 ui_in[1].t0 flash_0.x4.neg_en_b.t1 VGND.t32 sky130_fd_pr__nfet_g5v0d10v5 ad=0.21 pd=1.34 as=0.135 ps=1.54 w=0.5 l=3
X7 flash_0.x4.dcgint.t8 flash_0.x4.neg_mid_b.t7 flash_0.x4.VOUT.t8 flash_0.x4.dcgint.t6 sky130_fd_pr__pfet_g5v0d10v5 ad=0.0725 pd=0.79 as=0.145 ps=1.58 w=0.5 l=0.5
X8 flash_0.x7.pos_mid_b.t1 ui_in[1].t1 VGND.t39 VGND.t23 sky130_fd_pr__nfet_g5v0d10v5 ad=0.135 pd=1.54 as=0.21 ps=1.34 w=0.5 l=3
X9 flash_0.x7.pos_mid flash_0.x7.pos_en_b.t4 VGND.t69 VGND.t2 sky130_fd_pr__nfet_g5v0d10v5 ad=0.135 pd=1.54 as=0.21 ps=1.34 w=0.5 l=3
X10 VDPWR.t44 ui_in[1].t2 flash_0.x4.neg_mid VDPWR.t14 sky130_fd_pr__pfet_g5v0d10v5 ad=0.0725 pd=0.79 as=0.0725 ps=0.79 w=0.5 l=0.5
X11 ua[0].t1 VGND.t40 VGND.t41 ua[0].t0 sky130_fd_pr__pfet_g5v0d10v5 ad=0.145 pd=1.58 as=0.145 ps=1.58 w=0.5 l=10
X12 VDPWR.t48 flash_0.x7.neg_en_b.t4 flash_0.x7.neg_mid_b.t5 VDPWR.t47 sky130_fd_pr__pfet_g5v0d10v5 ad=0.0725 pd=0.79 as=0.135 ps=1.54 w=0.5 l=0.5
X13 VDPWR.t28 flash_0.x7.neg_en_b.t5 flash_0.x7.neg_mid_b.t4 VDPWR.t27 sky130_fd_pr__pfet_g5v0d10v5 ad=0.0725 pd=0.79 as=0.0725 ps=0.79 w=0.5 l=0.5
X14 flash_0.x5.A.t0 flash_0.x6.Y VDPWR.t46 VDPWR.t45 sky130_fd_pr__pfet_g5v0d10v5 ad=0.145 pd=1.58 as=0.145 ps=1.58 w=0.5 l=20
X15 flash_0.x7.vintp flash_0.x7.pos_mid_b.t4 flash_0.x7.VPRGPOS.t27 flash_0.x7.VPRGPOS.t13 sky130_fd_pr__pfet_g5v0d10v5 ad=0.0725 pd=0.79 as=0.0725 ps=0.79 w=0.5 l=0.5
X16 flash_0.x7.neg_mid ui_in[0].t0 VDPWR.t3 VDPWR.t2 sky130_fd_pr__pfet_g5v0d10v5 ad=0.0725 pd=0.79 as=0.0725 ps=0.79 w=0.5 l=0.5
X17 flash_0.x4.neg_mid_b.t6 flash_0.x4.neg_mid flash_0.x7.VPRGNEG flash_0.x7.VPRGNEG sky130_fd_pr__nfet_g5v0d10v5 ad=0.145 pd=1.58 as=0.21 ps=1.34 w=0.5 l=1
X18 flash_0.x2.clkina flash_0.x2.clkinb VAPWR.t14 VAPWR.t13 sky130_fd_pr__pfet_g5v0d10v5 ad=0.145 pd=1.58 as=0.145 ps=1.58 w=0.5 l=1
X19 flash_0.x4.neg_mid_b.t2 flash_0.x4.neg_en_b.t4 VDPWR.t23 VDPWR.t22 sky130_fd_pr__pfet_g5v0d10v5 ad=0.135 pd=1.54 as=0.0725 ps=0.79 w=0.5 l=0.5
X20 flash_0.x7.pos_mid_b.t0 ui_in[1].t3 VGND.t24 VGND.t23 sky130_fd_pr__nfet_g5v0d10v5 ad=0.135 pd=1.54 as=0.21 ps=1.34 w=0.5 l=3
X21 flash_0.x7.pos_mid flash_0.x7.pos_en_b.t4 VGND.t68 VGND.t2 sky130_fd_pr__nfet_g5v0d10v5 ad=0.135 pd=1.54 as=0.21 ps=1.34 w=0.5 l=3
X22 flash_0.x4.dcgint.t7 flash_0.x4.neg_mid_b.t8 flash_0.x4.VOUT.t12 flash_0.x4.dcgint.t6 sky130_fd_pr__pfet_g5v0d10v5 ad=0.0725 pd=0.79 as=0.145 ps=1.58 w=0.5 l=0.5
X23 a_9352_28387# flash_0.x4.VOUT.t14 a_7463_28281# flash_0.x7.VOUT.t14 sky130_fd_bs_flash__special_sonosfet_star ad=0.13725 pd=1.51 as=0.13725 ps=1.51 w=0.45 l=0.22
X24 VGND.t17 ui_in[1].t4 flash_0.x7.pos_mid_b VGND.t10 sky130_fd_pr__nfet_g5v0d10v5 ad=0.21 pd=1.34 as=0.135 ps=1.54 w=0.5 l=3
X25 VGND.t1 ui_in[0].t1 flash_0.x4.pos_mid_b VGND.t0 sky130_fd_pr__nfet_g5v0d10v5 ad=0.21 pd=1.34 as=0.135 ps=1.54 w=0.5 l=3
X26 flash_0.x7.VPRGNEG flash_0.x4.neg_mid_b.t9 flash_0.x4.neg_mid flash_0.x7.VPRGNEG sky130_fd_pr__nfet_g5v0d10v5 ad=0.21 pd=1.34 as=0.145 ps=1.58 w=0.5 l=1
X27 flash_0.x4.vintp VDPWR flash_0.x4.VOUT.t6 flash_0.x7.VPRGPOS.t11 sky130_fd_pr__pfet_g5v0d10v5 ad=0.0725 pd=0.79 as=0.0725 ps=0.79 w=0.5 l=0.5
X28 VDPWR.t43 ui_in[1].t5 flash_0.x4.neg_en_b.t2 VDPWR.t42 sky130_fd_pr__pfet_g5v0d10v5 ad=0.21 pd=1.34 as=0.135 ps=1.54 w=0.5 l=3
X29 flash_0.x4.VOUT.t0 VDPWR.t58 a_16296_28578# flash_0.x7.VPRGNEG sky130_fd_pr__nfet_g5v0d10v5 ad=0.135 pd=1.54 as=0.0725 ps=0.79 w=0.5 l=3
X30 VDPWR.t52 flash_0.x7.neg_en_b.t6 flash_0.x7.neg_mid_b.t3 VDPWR.t51 sky130_fd_pr__pfet_g5v0d10v5 ad=0.0725 pd=0.79 as=0.0725 ps=0.79 w=0.5 l=0.5
X31 w_7728_24730.t3 ua[0].t2 ua[0].t3 w_7728_24730.t2 sky130_fd_pr__pfet_g5v0d10v5 ad=0.145 pd=1.58 as=0.145 ps=1.58 w=0.5 l=20
X32 flash_0.x3.stage1 VAPWR.t8 VAPWR.t10 VAPWR.t9 sky130_fd_pr__nfet_g5v0d10v5 ad=0.29 pd=2.58 as=0.29 ps=2.58 w=1 l=0.5
X33 flash_0.x4.VOUT.t5 VDPWR flash_0.x4.vintp flash_0.x7.VPRGPOS.t2 sky130_fd_pr__pfet_g5v0d10v5 ad=0.0725 pd=0.79 as=0.0725 ps=0.79 w=0.5 l=0.5
X34 flash_0.x7.neg_en_b.t0 ui_in[0].t2 VGND.t25 VGND.t23 sky130_fd_pr__nfet_g5v0d10v5 ad=0.135 pd=1.54 as=0.21 ps=1.34 w=0.5 l=3
X35 flash_0.x7.pos_en_b.t2 ui_in[1].t6 VGND.t3 VGND.t2 sky130_fd_pr__nfet_g5v0d10v5 ad=0.135 pd=1.54 as=0.21 ps=1.34 w=0.5 l=3
X36 VGND.t11 ui_in[1].t7 flash_0.x7.pos_mid_b VGND.t10 sky130_fd_pr__nfet_g5v0d10v5 ad=0.21 pd=1.34 as=0.135 ps=1.54 w=0.5 l=3
X37 flash_0.x3.clka.t1 flash_0.x3.clkina VAPWR.t16 VAPWR.t6 sky130_fd_pr__pfet_g5v0d10v5 ad=0.435 pd=3.58 as=0.435 ps=3.58 w=1.5 l=1
X38 VGND.t27 ui_in[0].t3 flash_0.x4.pos_mid_b VGND.t0 sky130_fd_pr__nfet_g5v0d10v5 ad=0.21 pd=1.34 as=0.135 ps=1.54 w=0.5 l=3
X39 flash_0.x3.clkb.t0 flash_0.x3.clkinb VGND.t46 VGND.t45 sky130_fd_pr__nfet_g5v0d10v5 ad=0.29 pd=2.58 as=0.29 ps=2.58 w=1 l=1
X40 flash_0.x4.vintp flash_0.x4.pos_mid_b.t3 flash_0.x7.VPRGPOS.t12 flash_0.x7.VPRGPOS.t11 sky130_fd_pr__pfet_g5v0d10v5 ad=0.0725 pd=0.79 as=0.0725 ps=0.79 w=0.5 l=0.5
X41 flash_0.x4.VOUT.t7 VDPWR.t59 a_16296_28578# flash_0.x7.VPRGNEG sky130_fd_pr__nfet_g5v0d10v5 ad=0.135 pd=1.54 as=0.0725 ps=0.79 w=0.5 l=3
X42 flash_0.x4.dcgint.t11 flash_0.x4.pos_en_b.t4 VGND.t64 VGND.t63 sky130_fd_pr__nfet_g5v0d10v5 ad=0.135 pd=1.54 as=0.135 ps=1.54 w=0.5 l=3
X43 flash_0.x7.VPRGPOS.t3 flash_0.x4.pos_mid_b.t4 flash_0.x4.vintp flash_0.x7.VPRGPOS.t2 sky130_fd_pr__pfet_g5v0d10v5 ad=0.0725 pd=0.79 as=0.0725 ps=0.79 w=0.5 l=0.5
X44 flash_0.x6.Y.t0 ui_in[2].t0 VGND.t48 VGND.t47 sky130_fd_pr__nfet_01v8 ad=0.29 pd=2.58 as=0.29 ps=2.58 w=1 l=3
X45 flash_0.x7.VOUT.t7 VDPWR flash_0.x7.vintp flash_0.x7.VPRGPOS.t20 sky130_fd_pr__pfet_g5v0d10v5 ad=0.135 pd=1.54 as=0.0725 ps=0.79 w=0.5 l=0.5
X46 flash_0.x2.clka.t0 flash_0.x2.clkina VGND.t38 VGND.t37 sky130_fd_pr__nfet_g5v0d10v5 ad=0.29 pd=2.58 as=0.29 ps=2.58 w=1 l=1
X47 flash_0.x3.clkb flash_0.x3.stage2 sky130_fd_pr__cap_mim_m3_1 l=25 w=25
X48 VGND.t67 ui_in[1].t8 flash_0.x7.pos_en_b.t1 VGND.t10 sky130_fd_pr__nfet_g5v0d10v5 ad=0.21 pd=1.34 as=0.135 ps=1.54 w=0.5 l=3
X49 VGND.t16 ui_in[0].t4 flash_0.x4.pos_en_b.t3 VGND.t0 sky130_fd_pr__nfet_g5v0d10v5 ad=0.21 pd=1.34 as=0.135 ps=1.54 w=0.5 l=3
X50 VDPWR.t21 flash_0.x4.neg_en_b.t5 flash_0.x4.neg_mid_b.t3 VDPWR.t20 sky130_fd_pr__pfet_g5v0d10v5 ad=0.0725 pd=0.79 as=0.135 ps=1.54 w=0.5 l=0.5
X51 flash_0.x7.neg_en_b.t2 ui_in[0].t5 VDPWR.t50 VDPWR.t49 sky130_fd_pr__pfet_g5v0d10v5 ad=0.145 pd=1.58 as=0.21 ps=1.34 w=0.5 l=3
X52 flash_0.x7.pos_en_b.t3 ui_in[1].t9 VDPWR.t41 VDPWR.t40 sky130_fd_pr__pfet_g5v0d10v5 ad=0.135 pd=1.54 as=0.21 ps=1.34 w=0.5 l=3
X53 flash_0.x4.dcgint.t10 flash_0.x4.pos_en_b.t4 VGND.t62 VGND.t61 sky130_fd_pr__nfet_g5v0d10v5 ad=0.135 pd=1.54 as=0.135 ps=1.54 w=0.5 l=3
X54 VDPWR.t39 ui_in[1].t10 flash_0.x4.neg_mid VDPWR.t12 sky130_fd_pr__pfet_g5v0d10v5 ad=0.0725 pd=0.79 as=0.0725 ps=0.79 w=0.5 l=0.5
X55 a_16296_28578# flash_0.x4.neg_mid_b.t10 flash_0.x7.VPRGNEG flash_0.x7.VPRGNEG sky130_fd_pr__nfet_g5v0d10v5 ad=0.0725 pd=0.79 as=0.135 ps=1.54 w=0.5 l=3
X56 flash_0.x4.neg_mid_b.t5 flash_0.x4.neg_en_b.t6 VDPWR.t19 VDPWR.t18 sky130_fd_pr__pfet_g5v0d10v5 ad=0.0725 pd=0.79 as=0.0725 ps=0.79 w=0.5 l=0.5
X57 flash_0.x7.VPRGPOS.t26 flash_0.x7.pos_mid_b.t5 flash_0.x7.vintp flash_0.x7.VPRGPOS.t20 sky130_fd_pr__pfet_g5v0d10v5 ad=0.135 pd=1.54 as=0.0725 ps=0.79 w=0.5 l=0.5
X58 flash_0.x7.neg_mid ui_in[0].t6 VDPWR.t10 VDPWR.t9 sky130_fd_pr__pfet_g5v0d10v5 ad=0.0725 pd=0.79 as=0.0725 ps=0.79 w=0.5 l=0.5
X59 flash_0.x4.neg_mid_b.t0 flash_0.x4.neg_en_b.t7 VDPWR.t17 VDPWR.t16 sky130_fd_pr__pfet_g5v0d10v5 ad=0.0725 pd=0.79 as=0.0725 ps=0.79 w=0.5 l=0.5
X60 flash_0.x4.dcgint.t5 flash_0.x4.neg_mid_b.t11 flash_0.x4.VOUT.t13 flash_0.x4.dcgint.t2 sky130_fd_pr__pfet_g5v0d10v5 ad=0.145 pd=1.58 as=0.0725 ps=0.79 w=0.5 l=0.5
X61 flash_0.x7.VPRGPOS.t9 w_7728_24730.t0 w_7728_24730.t1 flash_0.x7.VPRGPOS.t8 sky130_fd_pr__pfet_g5v0d10v5 ad=0.145 pd=1.58 as=0.145 ps=1.58 w=0.5 l=20
X62 VDPWR.t38 ui_in[1].t11 flash_0.x7.pos_en_b.t0 VDPWR.t37 sky130_fd_pr__pfet_g5v0d10v5 ad=0.21 pd=1.34 as=0.135 ps=1.54 w=0.5 l=3
X63 flash_0.x3.clkinb clk.t1 VGND.t19 VGND.t18 sky130_fd_pr__nfet_g5v0d10v5 ad=0.145 pd=1.58 as=0.145 ps=1.58 w=0.5 l=1
X64 VDPWR.t30 ui_in[0].t7 flash_0.x4.pos_en_b.t1 VDPWR.t29 sky130_fd_pr__pfet_g5v0d10v5 ad=0.21 pd=1.34 as=0.135 ps=1.54 w=0.5 l=3
X65 flash_0.x2.clkina flash_0.x2.clkinb VGND.t52 VGND.t51 sky130_fd_pr__nfet_g5v0d10v5 ad=0.145 pd=1.58 as=0.145 ps=1.58 w=0.5 l=1
X66 flash_0.x3.clka flash_0.x3.stage1 sky130_fd_pr__cap_mim_m3_1 l=25 w=25
X67 a_16296_28578# flash_0.x4.neg_mid_b.t10 flash_0.x7.VPRGNEG flash_0.x7.VPRGNEG sky130_fd_pr__nfet_g5v0d10v5 ad=0.0725 pd=0.79 as=0.135 ps=1.54 w=0.5 l=3
X68 flash_0.x4.dcgint.t9 flash_0.x4.pos_en_b.t4 VGND.t60 VGND.t59 sky130_fd_pr__nfet_g5v0d10v5 ad=0.135 pd=1.54 as=0.135 ps=1.54 w=0.5 l=3
X69 flash_0.x4.VOUT.t9 flash_0.x4.neg_mid_b.t12 flash_0.x4.dcgint.t4 flash_0.x4.dcgint.t0 sky130_fd_pr__pfet_g5v0d10v5 ad=0.0725 pd=0.79 as=0.0725 ps=0.79 w=0.5 l=0.5
X70 flash_0.x4.dcgint.t3 flash_0.x4.neg_mid_b.t13 flash_0.x4.VOUT.t11 flash_0.x4.dcgint.t2 sky130_fd_pr__pfet_g5v0d10v5 ad=0.145 pd=1.58 as=0.0725 ps=0.79 w=0.5 l=0.5
X71 flash_0.x4.vintp VDPWR flash_0.x4.VOUT.t4 flash_0.x7.VPRGPOS.t19 sky130_fd_pr__pfet_g5v0d10v5 ad=0.0725 pd=0.79 as=0.135 ps=1.54 w=0.5 l=0.5
X72 a_7463_28281# ui_in[2].t1 VGND.t22 VGND.t21 sky130_fd_pr__nfet_g5v0d10v5 ad=0.58 pd=4.58 as=0.58 ps=4.58 w=2 l=0.5
X73 flash_0.x7.neg_mid ui_in[0].t8 VDPWR.t11 VDPWR.t6 sky130_fd_pr__pfet_g5v0d10v5 ad=0.135 pd=1.54 as=0.0725 ps=0.79 w=0.5 l=0.5
X74 flash_0.x7.dcgint.t11 flash_0.x7.neg_mid_b.t7 flash_0.x7.VOUT.t11 flash_0.x7.dcgint.t9 sky130_fd_pr__pfet_g5v0d10v5 ad=0.0725 pd=0.79 as=0.145 ps=1.58 w=0.5 l=0.5
X75 VDPWR.t57 ui_in[0].t9 flash_0.x7.neg_mid VDPWR.t47 sky130_fd_pr__pfet_g5v0d10v5 ad=0.0725 pd=0.79 as=0.135 ps=1.54 w=0.5 l=0.5
X76 uo_out[0].t0 flash_0.x5.A.t4 VDPWR.t5 VDPWR.t4 sky130_fd_pr__pfet_01v8 ad=0.29 pd=2.58 as=0.29 ps=2.58 w=1 l=3
X77 VDPWR.t56 ui_in[0].t10 flash_0.x7.neg_mid VDPWR.t27 sky130_fd_pr__pfet_g5v0d10v5 ad=0.0725 pd=0.79 as=0.0725 ps=0.79 w=0.5 l=0.5
X78 flash_0.x4.VOUT.t3 VDPWR flash_0.x4.vintp flash_0.x7.VPRGPOS.t0 sky130_fd_pr__pfet_g5v0d10v5 ad=0.0725 pd=0.79 as=0.0725 ps=0.79 w=0.5 l=0.5
X79 flash_0.x3.stage2 flash_0.x3.stage1 flash_0.x3.stage1 flash_0.x3.stage1 sky130_fd_pr__nfet_g5v0d10v5 ad=0.29 pd=2.58 as=0.29 ps=2.58 w=1 l=0.5
X80 flash_0.x2.clkinb clk.t2 VAPWR.t1 VAPWR.t0 sky130_fd_pr__pfet_g5v0d10v5 ad=0.145 pd=1.58 as=0.145 ps=1.58 w=0.5 l=1
X81 flash_0.x4.VOUT.t10 flash_0.x4.neg_mid_b.t14 flash_0.x4.dcgint.t1 flash_0.x4.dcgint.t0 sky130_fd_pr__pfet_g5v0d10v5 ad=0.0725 pd=0.79 as=0.0725 ps=0.79 w=0.5 l=0.5
X82 flash_0.x7.neg_mid_b.t6 flash_0.x7.neg_mid flash_0.x7.VPRGNEG flash_0.x7.VPRGNEG sky130_fd_pr__nfet_g5v0d10v5 ad=0.145 pd=1.58 as=0.21 ps=1.34 w=0.5 l=1
X83 flash_0.x4.vintp flash_0.x4.pos_mid_b.t5 flash_0.x7.VPRGPOS.t31 flash_0.x7.VPRGPOS.t19 sky130_fd_pr__pfet_g5v0d10v5 ad=0.0725 pd=0.79 as=0.135 ps=1.54 w=0.5 l=0.5
X84 VGND.t55 flash_0.x7.pos_en_b.t5 flash_0.x7.pos_mid VGND.t53 sky130_fd_pr__nfet_g5v0d10v5 ad=0.21 pd=1.34 as=0.135 ps=1.54 w=0.5 l=3
X85 flash_0.x7.dcgint.t10 flash_0.x7.neg_mid_b.t8 flash_0.x7.VOUT.t12 flash_0.x7.dcgint.t9 sky130_fd_pr__pfet_g5v0d10v5 ad=0.0725 pd=0.79 as=0.145 ps=1.58 w=0.5 l=0.5
X86 flash_0.x3.clkb.t1 flash_0.x3.clkinb VAPWR.t7 VAPWR.t6 sky130_fd_pr__pfet_g5v0d10v5 ad=0.435 pd=3.58 as=0.435 ps=3.58 w=1.5 l=1
X87 flash_0.x7.vintp VDPWR flash_0.x7.VOUT.t6 flash_0.x7.VPRGPOS.t18 sky130_fd_pr__pfet_g5v0d10v5 ad=0.0725 pd=0.79 as=0.0725 ps=0.79 w=0.5 l=0.5
X88 flash_0.x7.VOUT.t1 VDPWR.t60 a_20416_28577# flash_0.x7.VPRGNEG sky130_fd_pr__nfet_g5v0d10v5 ad=0.135 pd=1.54 as=0.0725 ps=0.79 w=0.5 l=3
X89 flash_0.x4.vintp VDPWR flash_0.x4.VOUT.t2 flash_0.x7.VPRGPOS.t6 sky130_fd_pr__pfet_g5v0d10v5 ad=0.0725 pd=0.79 as=0.0725 ps=0.79 w=0.5 l=0.5
X90 flash_0.x7.VPRGPOS.t1 flash_0.x4.pos_mid_b.t6 flash_0.x4.vintp flash_0.x7.VPRGPOS.t0 sky130_fd_pr__pfet_g5v0d10v5 ad=0.0725 pd=0.79 as=0.0725 ps=0.79 w=0.5 l=0.5
X91 flash_0.x2.clkb flash_0.x2.stage2 sky130_fd_pr__cap_mim_m3_1 l=25 w=25
X92 flash_0.x2.stage1 flash_0.x2.stage1 VGND.t20 flash_0.x2.stage1 sky130_fd_pr__nfet_g5v0d10v5 ad=0.29 pd=2.58 as=0.29 ps=2.58 w=1 l=0.5
X93 flash_0.x7.VPRGPOS.t10 flash_0.x3.stage2 flash_0.x3.stage2 flash_0.x3.stage2 sky130_fd_pr__nfet_g5v0d10v5 ad=0.29 pd=2.58 as=0.29 ps=2.58 w=1 l=0.5
X94 VGND.t54 flash_0.x7.pos_en_b.t5 flash_0.x7.pos_mid VGND.t53 sky130_fd_pr__nfet_g5v0d10v5 ad=0.21 pd=1.34 as=0.135 ps=1.54 w=0.5 l=3
X95 flash_0.x4.pos_mid_b.t1 ui_in[0].t11 VGND.t26 VGND.t12 sky130_fd_pr__nfet_g5v0d10v5 ad=0.135 pd=1.54 as=0.21 ps=1.34 w=0.5 l=3
X96 flash_0.x4.pos_mid flash_0.x4.pos_en_b.t5 VGND.t31 VGND.t28 sky130_fd_pr__nfet_g5v0d10v5 ad=0.135 pd=1.54 as=0.21 ps=1.34 w=0.5 l=3
X97 flash_0.x2.clkb.t0 flash_0.x2.clkinb VGND.t50 VGND.t49 sky130_fd_pr__nfet_g5v0d10v5 ad=0.29 pd=2.58 as=0.29 ps=2.58 w=1 l=1
X98 flash_0.x3.clkina flash_0.x3.clkinb VAPWR.t5 VAPWR.t4 sky130_fd_pr__pfet_g5v0d10v5 ad=0.145 pd=1.58 as=0.145 ps=1.58 w=0.5 l=1
X99 flash_0.x7.vintp flash_0.x7.pos_mid_b.t6 flash_0.x7.VPRGPOS.t25 flash_0.x7.VPRGPOS.t18 sky130_fd_pr__pfet_g5v0d10v5 ad=0.0725 pd=0.79 as=0.0725 ps=0.79 w=0.5 l=0.5
X100 VDPWR.t15 flash_0.x4.neg_en_b.t8 flash_0.x4.neg_mid_b.t1 VDPWR.t14 sky130_fd_pr__pfet_g5v0d10v5 ad=0.0725 pd=0.79 as=0.0725 ps=0.79 w=0.5 l=0.5
X101 flash_0.x7.VOUT.t0 VDPWR.t61 a_20416_28577# flash_0.x7.VPRGNEG sky130_fd_pr__nfet_g5v0d10v5 ad=0.135 pd=1.54 as=0.0725 ps=0.79 w=0.5 l=3
X102 flash_0.x4.vintp flash_0.x4.pos_mid_b.t7 flash_0.x7.VPRGPOS.t7 flash_0.x7.VPRGPOS.t6 sky130_fd_pr__pfet_g5v0d10v5 ad=0.0725 pd=0.79 as=0.0725 ps=0.79 w=0.5 l=0.5
X103 flash_0.x7.dcgint.t2 flash_0.x7.pos_en_b.t6 VGND.t9 VGND.t8 sky130_fd_pr__nfet_g5v0d10v5 ad=0.135 pd=1.54 as=0.135 ps=1.54 w=0.5 l=3
X104 a_20416_28577# flash_0.x7.neg_mid_b.t9 flash_0.x7.VPRGNEG flash_0.x7.VPRGNEG sky130_fd_pr__nfet_g5v0d10v5 ad=0.0725 pd=0.79 as=0.135 ps=1.54 w=0.5 l=3
X105 flash_0.x2.clka.t1 flash_0.x2.clkina VAPWR.t3 VAPWR.t2 sky130_fd_pr__pfet_g5v0d10v5 ad=0.435 pd=3.58 as=0.435 ps=3.58 w=1.5 l=1
X106 VGND.t56 ui_in[0].t12 flash_0.x7.neg_en_b.t3 VGND.t53 sky130_fd_pr__nfet_g5v0d10v5 ad=0.21 pd=1.34 as=0.135 ps=1.54 w=0.5 l=3
X107 flash_0.x7.neg_mid_b.t2 flash_0.x7.neg_en_b.t7 VDPWR.t8 VDPWR.t2 sky130_fd_pr__pfet_g5v0d10v5 ad=0.0725 pd=0.79 as=0.0725 ps=0.79 w=0.5 l=0.5
X108 flash_0.x4.pos_mid_b.t0 ui_in[0].t13 VGND.t13 VGND.t12 sky130_fd_pr__nfet_g5v0d10v5 ad=0.135 pd=1.54 as=0.21 ps=1.34 w=0.5 l=3
X109 flash_0.x4.neg_mid ui_in[1].t12 VDPWR.t36 VDPWR.t22 sky130_fd_pr__pfet_g5v0d10v5 ad=0.135 pd=1.54 as=0.0725 ps=0.79 w=0.5 l=0.5
X110 flash_0.x4.pos_mid flash_0.x4.pos_en_b.t5 VGND.t30 VGND.t28 sky130_fd_pr__nfet_g5v0d10v5 ad=0.135 pd=1.54 as=0.21 ps=1.34 w=0.5 l=3
X111 VDPWR.t35 ui_in[1].t13 flash_0.x4.neg_mid VDPWR.t20 sky130_fd_pr__pfet_g5v0d10v5 ad=0.0725 pd=0.79 as=0.135 ps=1.54 w=0.5 l=0.5
X112 flash_0.x2.clka flash_0.x2.stage1 sky130_fd_pr__cap_mim_m3_1 l=25 w=25
X113 flash_0.x7.VPRGPOS VGND.t70 sky130_fd_pr__cap_mim_m3_1 l=25 w=30
X114 VDPWR.t13 flash_0.x4.neg_en_b.t9 flash_0.x4.neg_mid_b.t4 VDPWR.t12 sky130_fd_pr__pfet_g5v0d10v5 ad=0.0725 pd=0.79 as=0.0725 ps=0.79 w=0.5 l=0.5
X115 flash_0.x7.dcgint.t1 flash_0.x7.pos_en_b.t6 VGND.t7 VGND.t6 sky130_fd_pr__nfet_g5v0d10v5 ad=0.135 pd=1.54 as=0.135 ps=1.54 w=0.5 l=3
X116 a_20416_28577# flash_0.x7.neg_mid_b.t10 flash_0.x7.VPRGNEG flash_0.x7.VPRGNEG sky130_fd_pr__nfet_g5v0d10v5 ad=0.0725 pd=0.79 as=0.135 ps=1.54 w=0.5 l=3
X117 flash_0.x7.VOUT.t9 flash_0.x7.neg_mid_b.t11 flash_0.x7.dcgint.t8 flash_0.x7.dcgint.t5 sky130_fd_pr__pfet_g5v0d10v5 ad=0.0725 pd=0.79 as=0.0725 ps=0.79 w=0.5 l=0.5
X118 VDPWR.t55 ui_in[0].t14 flash_0.x7.neg_mid VDPWR.t51 sky130_fd_pr__pfet_g5v0d10v5 ad=0.0725 pd=0.79 as=0.0725 ps=0.79 w=0.5 l=0.5
X119 flash_0.x7.neg_mid_b.t1 flash_0.x7.neg_en_b.t8 VDPWR.t24 VDPWR.t9 sky130_fd_pr__pfet_g5v0d10v5 ad=0.0725 pd=0.79 as=0.0725 ps=0.79 w=0.5 l=0.5
X120 flash_0.x4.neg_en_b.t0 ui_in[1].t14 VGND.t65 VGND.t12 sky130_fd_pr__nfet_g5v0d10v5 ad=0.135 pd=1.54 as=0.21 ps=1.34 w=0.5 l=3
X121 flash_0.x4.pos_en_b.t2 ui_in[0].t15 VGND.t29 VGND.t28 sky130_fd_pr__nfet_g5v0d10v5 ad=0.135 pd=1.54 as=0.21 ps=1.34 w=0.5 l=3
X122 flash_0.x4.neg_mid ui_in[1].t15 VDPWR.t34 VDPWR.t16 sky130_fd_pr__pfet_g5v0d10v5 ad=0.0725 pd=0.79 as=0.0725 ps=0.79 w=0.5 l=0.5
X123 VDPWR.t26 ui_in[0].t16 flash_0.x7.neg_en_b.t1 VDPWR.t25 sky130_fd_pr__pfet_g5v0d10v5 ad=0.21 pd=1.34 as=0.135 ps=1.54 w=0.5 l=3
X124 flash_0.x7.dcgint.t7 flash_0.x7.neg_mid_b.t12 flash_0.x7.VOUT.t8 flash_0.x7.dcgint.t3 sky130_fd_pr__pfet_g5v0d10v5 ad=0.145 pd=1.58 as=0.0725 ps=0.79 w=0.5 l=0.5
X125 flash_0.x2.clkinb clk.t3 VGND.t36 VGND.t35 sky130_fd_pr__nfet_g5v0d10v5 ad=0.145 pd=1.58 as=0.145 ps=1.58 w=0.5 l=1
X126 flash_0.x7.VOUT.t10 flash_0.x7.neg_mid_b.t13 flash_0.x7.dcgint.t6 flash_0.x7.dcgint.t5 sky130_fd_pr__pfet_g5v0d10v5 ad=0.0725 pd=0.79 as=0.0725 ps=0.79 w=0.5 l=0.5
X127 flash_0.x4.VOUT.t1 VDPWR flash_0.x4.vintp flash_0.x7.VPRGPOS.t17 sky130_fd_pr__pfet_g5v0d10v5 ad=0.135 pd=1.54 as=0.0725 ps=0.79 w=0.5 l=0.5
X128 flash_0.x7.dcgint.t0 flash_0.x7.pos_en_b.t6 VGND.t5 VGND.t4 sky130_fd_pr__nfet_g5v0d10v5 ad=0.135 pd=1.54 as=0.135 ps=1.54 w=0.5 l=3
X129 flash_0.x3.clka.t0 flash_0.x3.clkina VGND.t58 VGND.t57 sky130_fd_pr__nfet_g5v0d10v5 ad=0.29 pd=2.58 as=0.29 ps=2.58 w=1 l=1
X130 flash_0.x5.A.t3 flash_0.x5.A.t1 a_9352_28387# flash_0.x5.A.t2 sky130_fd_pr__nfet_g5v0d10v5 ad=1.45 pd=10.58 as=1.45 ps=10.58 w=5 l=0.5
X131 flash_0.x7.dcgint.t4 flash_0.x7.neg_mid_b.t14 flash_0.x7.VOUT.t13 flash_0.x7.dcgint.t3 sky130_fd_pr__pfet_g5v0d10v5 ad=0.145 pd=1.58 as=0.0725 ps=0.79 w=0.5 l=0.5
X132 flash_0.x7.neg_mid_b.t0 flash_0.x7.neg_en_b.t9 VDPWR.t7 VDPWR.t6 sky130_fd_pr__pfet_g5v0d10v5 ad=0.135 pd=1.54 as=0.0725 ps=0.79 w=0.5 l=0.5
X133 flash_0.x7.vintp VDPWR flash_0.x7.VOUT.t5 flash_0.x7.VPRGPOS.t16 sky130_fd_pr__pfet_g5v0d10v5 ad=0.0725 pd=0.79 as=0.135 ps=1.54 w=0.5 l=0.5
X134 flash_0.x4.neg_en_b.t3 ui_in[1].t16 VDPWR.t33 VDPWR.t32 sky130_fd_pr__pfet_g5v0d10v5 ad=0.145 pd=1.58 as=0.21 ps=1.34 w=0.5 l=3
X135 flash_0.x4.pos_en_b.t0 ui_in[0].t17 VDPWR.t1 VDPWR.t0 sky130_fd_pr__pfet_g5v0d10v5 ad=0.135 pd=1.54 as=0.21 ps=1.34 w=0.5 l=3
X136 VGND.t34 flash_0.x4.pos_en_b.t6 flash_0.x4.pos_mid VGND.t32 sky130_fd_pr__nfet_g5v0d10v5 ad=0.21 pd=1.34 as=0.135 ps=1.54 w=0.5 l=3
X137 flash_0.x7.VPRGNEG flash_0.x7.neg_mid_b.t15 flash_0.x7.neg_mid flash_0.x7.VPRGNEG sky130_fd_pr__nfet_g5v0d10v5 ad=0.21 pd=1.34 as=0.145 ps=1.58 w=0.5 l=1
X138 flash_0.x7.VOUT.t4 VDPWR flash_0.x7.vintp flash_0.x7.VPRGPOS.t15 sky130_fd_pr__pfet_g5v0d10v5 ad=0.0725 pd=0.79 as=0.0725 ps=0.79 w=0.5 l=0.5
X139 flash_0.x2.stage2 flash_0.x2.stage2 flash_0.x2.stage1 flash_0.x2.stage2 sky130_fd_pr__nfet_g5v0d10v5 ad=0.29 pd=2.58 as=0.29 ps=2.58 w=1 l=0.5
X140 flash_0.x7.VPRGPOS.t32 flash_0.x4.pos_mid_b.t8 flash_0.x4.vintp flash_0.x7.VPRGPOS.t17 sky130_fd_pr__pfet_g5v0d10v5 ad=0.135 pd=1.54 as=0.0725 ps=0.79 w=0.5 l=0.5
X141 flash_0.x4.neg_mid ui_in[1].t17 VDPWR.t31 VDPWR.t18 sky130_fd_pr__pfet_g5v0d10v5 ad=0.0725 pd=0.79 as=0.0725 ps=0.79 w=0.5 l=0.5
X142 flash_0.x7.vintp flash_0.x7.pos_mid_b.t7 flash_0.x7.VPRGPOS.t24 flash_0.x7.VPRGPOS.t16 sky130_fd_pr__pfet_g5v0d10v5 ad=0.0725 pd=0.79 as=0.135 ps=1.54 w=0.5 l=0.5
X143 flash_0.x7.VOUT.t3 VDPWR flash_0.x7.vintp flash_0.x7.VPRGPOS.t14 sky130_fd_pr__pfet_g5v0d10v5 ad=0.0725 pd=0.79 as=0.0725 ps=0.79 w=0.5 l=0.5
X144 flash_0.x7.VPRGPOS.t23 flash_0.x7.pos_mid_b flash_0.x7.pos_mid flash_0.x7.VPRGPOS.t22 sky130_fd_pr__pfet_g5v0d10v5 ad=0.135 pd=1.54 as=0.135 ps=1.54 w=0.5 l=3
X145 flash_0.x7.VPRGPOS.t5 flash_0.x4.pos_mid_b flash_0.x4.pos_mid flash_0.x7.VPRGPOS.t4 sky130_fd_pr__pfet_g5v0d10v5 ad=0.135 pd=1.54 as=0.135 ps=1.54 w=0.5 l=3
X146 VGND.t33 flash_0.x4.pos_en_b.t6 flash_0.x4.pos_mid VGND.t32 sky130_fd_pr__nfet_g5v0d10v5 ad=0.21 pd=1.34 as=0.135 ps=1.54 w=0.5 l=3
X147 uo_out[0].t1 flash_0.x5.A.t5 VGND.t15 VGND.t14 sky130_fd_pr__nfet_01v8 ad=0.29 pd=2.58 as=0.29 ps=2.58 w=1 l=3
X148 flash_0.x3.clkina flash_0.x3.clkinb VGND.t44 VGND.t43 sky130_fd_pr__nfet_g5v0d10v5 ad=0.145 pd=1.58 as=0.145 ps=1.58 w=0.5 l=1
X149 flash_0.x7.vintp VDPWR flash_0.x7.VOUT.t2 flash_0.x7.VPRGPOS.t13 sky130_fd_pr__pfet_g5v0d10v5 ad=0.0725 pd=0.79 as=0.0725 ps=0.79 w=0.5 l=0.5
X150 flash_0.x7.VPRGPOS.t21 flash_0.x7.pos_mid_b.t8 flash_0.x7.vintp flash_0.x7.VPRGPOS.t15 sky130_fd_pr__pfet_g5v0d10v5 ad=0.0725 pd=0.79 as=0.0725 ps=0.79 w=0.5 l=0.5
X151 flash_0.x6.Y ui_in[2].t2 VDPWR.t54 VDPWR.t53 sky130_fd_pr__pfet_01v8 ad=0.29 pd=2.58 as=0.29 ps=2.58 w=1 l=3
X152 flash_0.x7.VPRGNEG flash_0.x7.VPRGNEG flash_0.x2.stage2 flash_0.x7.VPRGNEG sky130_fd_pr__nfet_g5v0d10v5 ad=0.29 pd=2.58 as=0.29 ps=2.58 w=1 l=0.5
R0 VGND.t59 VGND.n121 1.77808e+07
R1 VGND.n211 VGND.n210 1.32662e+07
R2 VGND.n121 VGND.t4 9.06413e+06
R3 VGND.n211 VGND.n24 7.77048e+06
R4 VGND.n138 VGND.n129 136400
R5 VGND.n152 VGND.n118 77206.1
R6 VGND.n178 VGND.n63 55379.3
R7 VGND.n140 VGND.n139 41452.9
R8 VGND.n136 VGND.n135 28158.7
R9 VGND.n82 VGND.n67 26564
R10 VGND.n143 VGND.n129 26182
R11 VGND.n82 VGND.n81 19464
R12 VGND.n139 VGND.n138 18707.2
R13 VGND.n177 VGND.n176 17794
R14 VGND.n212 VGND.n22 17579
R15 VGND.n45 VGND.n41 17010.2
R16 VGND.n52 VGND.n41 17010.2
R17 VGND.n189 VGND.n56 17010.2
R18 VGND.n180 VGND.n56 17010.2
R19 VGND.n148 VGND.n129 16052.9
R20 VGND.n136 VGND.n22 15944.1
R21 VGND.n176 VGND.n82 15655.2
R22 VGND.n158 VGND.n118 15267.5
R23 VGND.n178 VGND.n177 13983.9
R24 VGND.n177 VGND.n64 12678.4
R25 VGND.n138 VGND.n137 11203.8
R26 VGND.n213 VGND.n212 8682.25
R27 VGND.n158 VGND.n157 8288.46
R28 VGND.n71 VGND.n22 7672.91
R29 VGND.n128 VGND.t63 6465.71
R30 VGND.n137 VGND.n118 5878.85
R31 VGND.n211 VGND.n23 5801.34
R32 VGND.n58 VGND.n55 5607.68
R33 VGND.n43 VGND.n40 5607.68
R34 VGND.n40 VGND.n23 5607.68
R35 VGND.n62 VGND.n55 5607.68
R36 VGND.n120 VGND.n119 5067.26
R37 VGND.n141 VGND.n140 4557.14
R38 VGND.t53 VGND.t2 4288.33
R39 VGND.t2 VGND.t10 4288.33
R40 VGND.t32 VGND.t28 4288.33
R41 VGND.t28 VGND.t0 4288.33
R42 VGND.n174 VGND.n83 3957.38
R43 VGND.n174 VGND.n84 3957.38
R44 VGND.n133 VGND.n84 3957.38
R45 VGND.n133 VGND.n83 3957.38
R46 VGND.n72 VGND.n68 3957.38
R47 VGND.n72 VGND.n69 3957.38
R48 VGND.n80 VGND.n69 3957.38
R49 VGND.n80 VGND.n68 3957.38
R50 VGND.n209 VGND.n25 3790.36
R51 VGND.n60 VGND.n25 3790.36
R52 VGND.n195 VGND.n194 3790.36
R53 VGND.n194 VGND.n38 3790.36
R54 VGND.n151 VGND.t23 3495.43
R55 VGND.n142 VGND.t12 3495.43
R56 VGND.n81 VGND.t47 3200.66
R57 VGND.n71 VGND.t47 3200.66
R58 VGND.n152 VGND.n151 2827
R59 VGND.n143 VGND.n142 2827
R60 VGND.n43 VGND.n39 2736.73
R61 VGND.n150 VGND.n148 2648.22
R62 VGND.n139 VGND.n135 2546
R63 VGND.t10 VGND.n150 2345.18
R64 VGND.t0 VGND.n141 2345.18
R65 VGND.n178 VGND.n62 2341.85
R66 VGND.n157 VGND.t23 2331.85
R67 VGND.n63 VGND.n58 2309.11
R68 VGND.n54 VGND.n53 2233.78
R69 VGND.n137 VGND.n136 2176.84
R70 VGND.n212 VGND.n211 1977.24
R71 VGND.n214 VGND.n20 1900.12
R72 VGND.n214 VGND.n21 1900.12
R73 VGND.n66 VGND.n21 1900.12
R74 VGND.n66 VGND.n20 1900.12
R75 VGND.n191 VGND.n190 1830.35
R76 VGND.t12 VGND.n128 1820.3
R77 VGND.n140 VGND.n64 1788.04
R78 VGND.n135 VGND.n134 1768.36
R79 VGND.n44 VGND.n23 1501.04
R80 VGND.n54 VGND.n39 1195.35
R81 VGND.n176 VGND.n175 1151.51
R82 VGND.n51 VGND.n42 1139.95
R83 VGND.n46 VGND.n42 1139.95
R84 VGND.n188 VGND.n57 1139.95
R85 VGND.n181 VGND.n57 1139.95
R86 VGND.t8 VGND.n158 1094.37
R87 VGND.n134 VGND.t14 1089.55
R88 VGND.n175 VGND.t14 1089.55
R89 VGND.n120 VGND.n54 931.699
R90 VGND.n62 VGND.n61 883.615
R91 VGND.n151 VGND.t53 792.894
R92 VGND.n142 VGND.t32 792.894
R93 VGND.t49 VGND.t37 757.616
R94 VGND.n67 VGND.t21 660
R95 VGND.n213 VGND.t21 660
R96 VGND.n179 VGND.n58 657.409
R97 VGND.n15 VGND.t41 650.87
R98 VGND.t51 VGND.t35 597.753
R99 VGND.n147 VGND.n144 535.718
R100 VGND.n156 VGND.n153 535.718
R101 VGND.n121 VGND.n120 522.082
R102 VGND.t63 VGND.t61 487.856
R103 VGND.n61 VGND.t49 478.974
R104 VGND.t57 VGND.t45 470.42
R105 VGND.n208 VGND.n207 437.836
R106 VGND.n207 VGND.n27 437.836
R107 VGND.n197 VGND.n37 437.836
R108 VGND.n197 VGND.n196 437.836
R109 VGND.n210 VGND.t35 424.973
R110 VGND.n44 VGND.n43 417.728
R111 VGND.n191 VGND.n54 402.44
R112 VGND.t37 VGND.n59 378.808
R113 VGND.n59 VGND.t51 378.808
R114 VGND.t43 VGND.t18 350.719
R115 VGND.n127 VGND.t59 304.329
R116 VGND.t45 VGND.n192 297.404
R117 VGND.n132 VGND.n131 257.13
R118 VGND.n132 VGND.n86 257.13
R119 VGND.n79 VGND.n70 257.13
R120 VGND.n79 VGND.n78 257.13
R121 VGND.n193 VGND.t57 235.209
R122 VGND.n163 VGND.t5 230.898
R123 VGND.n161 VGND.t7 230.898
R124 VGND.n162 VGND.t9 230.898
R125 VGND.n125 VGND.t60 230.898
R126 VGND.n122 VGND.t62 230.898
R127 VGND.n123 VGND.t64 230.898
R128 VGND.n131 VGND.n85 229.272
R129 VGND.n172 VGND.n86 229.272
R130 VGND.n74 VGND.n70 229.272
R131 VGND.n78 VGND.n77 229.272
R132 VGND.n199 VGND.t44 227.643
R133 VGND.n205 VGND.t52 227.643
R134 VGND.n26 VGND.t36 227.398
R135 VGND.n34 VGND.t19 227.398
R136 VGND.n193 VGND.t43 222.901
R137 VGND.n215 VGND.n19 221.742
R138 VGND.n65 VGND.n19 221.742
R139 VGND.n65 VGND.n18 221.742
R140 VGND.t18 VGND.n24 221.728
R141 VGND.n144 VGND.n143 188.038
R142 VGND.n153 VGND.n152 188.038
R143 VGND.t61 VGND.n127 183.528
R144 VGND.n148 VGND.n147 180.132
R145 VGND.n157 VGND.n156 180.132
R146 VGND.t6 VGND.t8 157.787
R147 VGND.n216 VGND.n18 152.194
R148 VGND.n150 VGND.n149 152.111
R149 VGND.n141 VGND.n130 152.111
R150 VGND.n135 VGND.n64 147.569
R151 VGND.n20 VGND.n18 146.25
R152 VGND.t21 VGND.n20 146.25
R153 VGND.n21 VGND.n19 146.25
R154 VGND.t21 VGND.n21 146.25
R155 VGND.n133 VGND.n132 117.001
R156 VGND.n134 VGND.n133 117.001
R157 VGND.n174 VGND.n173 117.001
R158 VGND.n175 VGND.n174 117.001
R159 VGND.n80 VGND.n79 117.001
R160 VGND.n81 VGND.n80 117.001
R161 VGND.n73 VGND.n72 117.001
R162 VGND.n72 VGND.n71 117.001
R163 VGND.n192 VGND.n191 107.427
R164 VGND.n53 VGND.n40 102.35
R165 VGND.n190 VGND.n55 102.35
R166 VGND.n159 VGND.t4 98.4295
R167 VGND.n60 VGND.n27 97.5005
R168 VGND.n61 VGND.n60 97.5005
R169 VGND.n209 VGND.n208 97.5005
R170 VGND.n210 VGND.n209 97.5005
R171 VGND.n38 VGND.n37 97.5005
R172 VGND.n192 VGND.n38 97.5005
R173 VGND.n196 VGND.n195 97.5005
R174 VGND.n195 VGND.n24 97.5005
R175 VGND.n115 VGND.n114 97.1505
R176 VGND.n108 VGND.n107 97.1505
R177 VGND.n111 VGND.n110 97.1505
R178 VGND.n104 VGND.n103 97.1505
R179 VGND.n113 VGND.n112 97.1505
R180 VGND.n106 VGND.n105 97.1505
R181 VGND.n99 VGND.n98 97.1505
R182 VGND.n92 VGND.n91 97.1505
R183 VGND.n95 VGND.n94 97.1505
R184 VGND.n88 VGND.n87 97.1505
R185 VGND.n97 VGND.n96 97.1505
R186 VGND.n90 VGND.n89 97.1505
R187 VGND.n119 VGND.n63 95.855
R188 VGND.n114 VGND.t3 95.7605
R189 VGND.n114 VGND.t67 95.7605
R190 VGND.n107 VGND.t25 95.7605
R191 VGND.n107 VGND.t56 95.7605
R192 VGND.n110 VGND.t68 95.7605
R193 VGND.n110 VGND.t11 95.7605
R194 VGND.n103 VGND.t24 95.7605
R195 VGND.n103 VGND.t54 95.7605
R196 VGND.n112 VGND.t69 95.7605
R197 VGND.n112 VGND.t17 95.7605
R198 VGND.n105 VGND.t39 95.7605
R199 VGND.n105 VGND.t55 95.7605
R200 VGND.n98 VGND.t29 95.7605
R201 VGND.n98 VGND.t16 95.7605
R202 VGND.n91 VGND.t65 95.7605
R203 VGND.n91 VGND.t66 95.7605
R204 VGND.n94 VGND.t30 95.7605
R205 VGND.n94 VGND.t27 95.7605
R206 VGND.n87 VGND.t13 95.7605
R207 VGND.n87 VGND.t33 95.7605
R208 VGND.n96 VGND.t31 95.7605
R209 VGND.n96 VGND.t1 95.7605
R210 VGND.n89 VGND.t26 95.7605
R211 VGND.n89 VGND.t34 95.7605
R212 VGND.n170 VGND.t15 83.754
R213 VGND.n76 VGND.t48 83.7172
R214 VGND.n36 VGND.t46 83.1807
R215 VGND.n28 VGND.t50 83.1807
R216 VGND.n35 VGND.t58 82.9558
R217 VGND.n29 VGND.t38 82.9558
R218 VGND.n30 VGND.t20 82.8472
R219 VGND.n160 VGND.n159 73.7068
R220 VGND.n127 VGND.n126 73.7068
R221 VGND.n66 VGND.n65 65.0005
R222 VGND.n67 VGND.n66 65.0005
R223 VGND.n215 VGND.n214 65.0005
R224 VGND.n214 VGND.n213 65.0005
R225 VGND.n159 VGND.t6 59.3584
R226 VGND.n216 VGND.n215 56.9466
R227 VGND.n131 VGND.n83 53.1823
R228 VGND.n83 VGND.t14 53.1823
R229 VGND.n86 VGND.n84 53.1823
R230 VGND.n84 VGND.t14 53.1823
R231 VGND.n70 VGND.n68 53.1823
R232 VGND.n68 VGND.t47 53.1823
R233 VGND.n78 VGND.n69 53.1823
R234 VGND.n69 VGND.t47 53.1823
R235 VGND.n217 VGND.t22 41.2645
R236 VGND.n173 VGND.n85 27.8593
R237 VGND.n173 VGND.n172 27.8593
R238 VGND.n74 VGND.n73 27.8593
R239 VGND.n77 VGND.n73 27.8593
R240 VGND.n57 VGND.n56 26.5914
R241 VGND.n119 VGND.n56 26.5914
R242 VGND.n42 VGND.n41 26.5914
R243 VGND.n41 VGND.n39 26.5914
R244 VGND.n207 VGND.n25 24.3755
R245 VGND.n59 VGND.n25 24.3755
R246 VGND.n197 VGND.n194 24.3755
R247 VGND.n194 VGND.n193 24.3755
R248 VGND.n179 VGND.n178 20.4593
R249 VGND.n75 VGND.n74 9.35514
R250 VGND.n77 VGND 9.33194
R251 VGND.n172 VGND.n171 9.3005
R252 VGND.n171 VGND.n85 9.3005
R253 VGND.n46 VGND.n45 9.28621
R254 VGND.n45 VGND.n44 9.28621
R255 VGND.n189 VGND.n188 9.28621